Using: /home/mario/synopsys/tool/hspice/V-2023.12-SP1/hspice/linux64/hspice lab8.sp
 ****** PrimeSim HSPICE -- V-2023.12-SP1 linux64 (Feb 29 2024 8764641) ******
  Copyright (c) 1986 - 2026 by Synopsys, Inc. All Rights Reserved.
  This software and the associated documentation are proprietary
  to Synopsys, Inc. This software may only be used in accordance
  with the terms and conditions of a written license agreement with
  Synopsys, Inc. All other use, reproduction, or distribution of
  this software is strictly prohibited.
  Input File: lab8.sp                                                           
  Command line options: /home/mario/synopsys/tool/hspice/V-2023.12-SP1/hspice/linux64/hspice lab8.sp
  Start time: Tue May 26 23:17:58 2026
 lic:  
 lic: FLEXlm: SDK_12.11.9.5 
 lic: USER:   mario                HOSTNAME: mario 
 lic: HOSTID: ffffffff91736e9d     PID:      4578 
 lic: Using FLEXlm license files: 
 lic: 27020@115.145.157.110:27021@115.145.157.110 
 lic: Unable to checkout (hspice) 
 lic:   
 lic: Using FLEXlm license file: 
 lic: 27021@115.145.157.110 
 lic: Checkout 1 primesim 
 lic: License/Maintenance for primesim will expire on 12-apr-2027/2026.03 
 lic: 4(in_use)/30(total) FLOATING license(s) on SERVER 27021@115.145.157.110 
 lic:   
1****** PrimeSim HSPICE -- V-2023.12-SP1 linux64 (Feb 29 2024 8764641) ******
 ******  
 lab8.sp

 ****** mos   model parameters tnom=  25.000 temp=  25.000 ******
 Model file: lab8.sp
 Model line:           26
 ***************************************************************************
 *** common model parameters  model name:   0:n        model type:nmos   ***
 ***************************************************************************
     names  values   units     names  values   units     names  values   units
     -----  ------   -----     -----  ------   -----     -----  ------   -----

   1*** geometry parameters ***
       ld= 200.00n meters      lmlt=   1.00                wd=   0.    meters 
     wmlt=   1.00                xl=   0.    meters        xw=   0.    meters 
     lref=   0.    meters      wref=   0.    meters      lref=   0.    meters 
     wref=   0.    meters     xlref=   0.    meters     xwref=   0.    meters 
     lmin=   0.    meters      wmin=   0.    meters      lmax=   0.    meters 
     wmax=   0.    meters 

   2*** threshold voltage parameters ***
      vto= 800.00m volts        nss=   0.    1/cm**2      tpg=   1.00         
      phi= 700.00m volts      gamma= 800.00m v**0.5      bulk=  gnd           
    ngate=   0.    cm**3       nsub= 5.7e+16 1/cm**3   delvto=   0.    volts  

   3*** gate overlap capacitance parameters ***
     cgbo=   0.    f/meter     cgdo= 300.00p f/meter     cgso= 300.00p f/meter
     meto=   0.    meters 

   4*** gate capacitance parameters ***
    capop=   2.00               cf1=   0.    volts        cf2= 100.00m volts  
      cf3=   1.00  volts        cf4=  50.00               cf5= 666.67m        
      cf6= 500.00               xqc= 500.00m              tox=  20.00n meters 
      cox=   1.73m f/m**2 

   5*** diffusion parasitic parameters ***
      acm=   0.                  is=  10.00f amps          js=   0.    a/m**2 
      jsw=   0.    amp/m        nds=   1.00               cbd=   0.    farad  
      cbs=   0.    farad         cj= 275.00u f/m**2      cjsw= 190.00p f/m    
   cjgate= 190.00p f/m           mj= 500.00m             mjsw= 330.00m        
       pb= 800.00m volts        php= 800.00m volts         tt=   0.    secs   
     hdif=   0.    meters      ldif=   0.    meters        rd=   0.    ohms   
       rs=   0.    ohms         rsh=   0.    ohms/sq       fc=   0.           
    alpha=   0.                 vcr=   0.    volts      iirat=   0.           
      rdc=   0.    ohms         rsc=   0.    ohms           n=   1.00         
     vnds=  -1.00  volts  

   6*** temperature effect parameters ***
     tlev=   0.               tlevc=   0.                  eg=   1.11  ev     
     gap1= 702.00u ev/deg      gap2=   1.11k deg          xti=   0.           
      bex=  -1.50               tcv=   0.    v/deg k      trd=   0.    /deg   
      trs=   0.    /deg         cta=   0.    /deg         ctp=   0.    /deg   

   7*** noise parameters ***
       kf=   0.                  af=   1.00              nlev=   2.00         
   gdsnoi=   1.00         

   ***  level  1  model parameters  ***

   lambda=  80.00m /v            kp=  86.33u a/v**2 
 Model file: lab8.sp
 Model line:           29
 ***************************************************************************
 *** common model parameters  model name:   0:p        model type:pmos   ***
 ***************************************************************************
     names  values   units     names  values   units     names  values   units
     -----  ------   -----     -----  ------   -----     -----  ------   -----

   1*** geometry parameters ***
       ld= 200.00n meters      lmlt=   1.00                wd=   0.    meters 
     wmlt=   1.00                xl=   0.    meters        xw=   0.    meters 
     lref=   0.    meters      wref=   0.    meters      lref=   0.    meters 
     wref=   0.    meters     xlref=   0.    meters     xwref=   0.    meters 
     lmin=   0.    meters      wmin=   0.    meters      lmax=   0.    meters 
     wmax=   0.    meters 

   2*** threshold voltage parameters ***
      vto=-800.00m volts        nss=   0.    1/cm**2      tpg=   1.00         
      phi= 700.00m volts      gamma= 800.00m v**0.5      bulk=  gnd           
    ngate=   0.    cm**3       nsub= 5.7e+16 1/cm**3   delvto=   0.    volts  

   3*** gate overlap capacitance parameters ***
     cgbo=   0.    f/meter     cgdo= 300.00p f/meter     cgso= 300.00p f/meter
     meto=   0.    meters 

   4*** gate capacitance parameters ***
    capop=   2.00               cf1=   0.    volts        cf2= 100.00m volts  
      cf3=   1.00  volts        cf4=  50.00               cf5= 666.67m        
      cf6= 500.00               xqc= 500.00m              tox=  20.00n meters 
      cox=   1.73m f/m**2 

   5*** diffusion parasitic parameters ***
      acm=   0.                  is=  10.00f amps          js=   0.    a/m**2 
      jsw=   0.    amp/m        nds=   1.00               cbd=   0.    farad  
      cbs=   0.    farad         cj= 275.00u f/m**2      cjsw= 190.00p f/m    
   cjgate= 190.00p f/m           mj= 500.00m             mjsw= 330.00m        
       pb= 800.00m volts        php= 800.00m volts         tt=   0.    secs   
     hdif=   0.    meters      ldif=   0.    meters        rd=   0.    ohms   
       rs=   0.    ohms         rsh=   0.    ohms/sq       fc=   0.           
    alpha=   0.                 vcr=   0.    volts      iirat=   0.           
      rdc=   0.    ohms         rsc=   0.    ohms           n=   1.00         
     vnds=  -1.00  volts  

   6*** temperature effect parameters ***
     tlev=   0.               tlevc=   0.                  eg=   1.11  ev     
     gap1= 702.00u ev/deg      gap2=   1.11k deg          xti=   0.           
      bex=  -1.50               tcv=   0.    v/deg k      trd=   0.    /deg   
      trs=   0.    /deg         cta=   0.    /deg         ctp=   0.    /deg   

   7*** noise parameters ***
       kf=   0.                  af=   1.00              nlev=   2.00         
   gdsnoi=   1.00         

   ***  level  1  model parameters  ***

   lambda= 100.00m /v            kp=  34.53u a/v**2 
  
      
 **info** set option symb=1 internally to help for convergence.
 *****************************************************************
 ******  option summary
 ******
 runlvl  = 3         bypass  = 2.0000    
 **info** dc convergence successful at Newton-Raphson method 
 ******  
 lab8.sp

 ****** operating point information tnom=  25.000 temp=  25.000 ******
 ****** operating point status is all       simulation time is     0.     
    node    =voltage      node    =voltage      node    =voltage

 +0:1       =   0.      0:2       =   0.      0:3       =   1.3808 
 +0:4       =   1.3808  0:5       =  -1.3535  0:6       =   1.3808 
 +0:7       = 220.8172m 0:8       =  -1.4412  0:9       =-566.8231m
 +0:10      =   1.1936  0:11      =   2.3213  0:12      =   1.1688 
 +0:13      = 358.6996m 0:14      =  -1.3646  0:vdd     =   2.5000 
 +0:vss     =  -2.5000 


 **** voltage sources

 subckt                                              
 element  0:vdd      0:vin1     0:vin2     0:vss     
  volts      2.5000     0.         0.        -2.5000 
  current -605.6289u    0.         0.       605.6289u
  power      1.5141m    0.         0.         1.5141m

     total voltage source power dissipation=    3.0281m       watts



 **** resistors

 subckt             
 element  0:rb      
  r value    7.6000k
  v drop   178.7192m
  current   23.5157u
  power      4.2027u



 **** mosfets


 subckt                                                                    
 element  0:m1       0:m2       0:m3       0:m4       0:m5       0:m6      
 model    0:n        0:n        0:n        0:p        0:p        0:p       
 region   Saturation Saturation Saturation Saturation Saturation Saturation
  id       122.2841u  122.2841u  244.5682u -122.2841u -122.2841u -272.7818u
  ibs      -11.4654f  -11.4654f    0.         0.         0.         0.     
  ibd      -38.8076f  -38.8076f  -11.4654f   11.1924f   11.1924f   22.7918f
  vgs        1.3535     1.3535     1.0588    -1.1192    -1.1192    -1.1192 
  vds        2.7342     2.7342     1.1465    -1.1192    -1.1192    -2.2792 
  vbs       -1.1465    -1.1465     0.         0.         0.         0.     
  vth        1.2178     1.2178   800.0000m -800.0000m -800.0000m -800.0000m
  vdsat    135.6912m  135.6912m  258.7799m -319.2384m -319.2384m -319.2383m
  vod      135.6912m  135.6912m  258.7799m -319.2384m -319.2384m -319.2383m
  beta      13.2830m   13.2830m    7.3041m    2.3998m    2.3998m    5.3532m
  gam eff  800.0000m  800.0000m  800.0000m  800.0000m  800.0000m  800.0000m
  gm         1.8024m    1.8024m    1.8902m  766.0989u  766.0989u    1.7090m
  gds        8.0269u    8.0269u   17.9216u   10.9975u   10.9975u   22.2150u
  gmb      530.5533u  530.5533u  903.6711u  366.2653u  366.2653u  817.0365u
  cdtot     30.8086f   30.8086f   18.7309f   15.1031f   15.1031f   30.7240f
  cgtot    158.1893f  158.1893f   96.4104f   77.4622f   77.4622f  156.6894f
  cstot    123.3051f  123.3051f   75.6923f   61.0421f   61.0421f  123.3051f
  cbtot      4.0756f    4.0756f    1.9872f    1.3170f    1.3170f    2.6603f
  cgs      123.3051f  123.3051f   75.6923f   61.0421f   61.0421f  123.3051f
  cgd       30.8086f   30.8086f   18.7309f   15.1031f   15.1031f   30.7240f



 subckt                                                                    
 element  0:m7       0:m8       0:m9       0:m10      0:m11      0:m12     
 model    0:n        0:p        0:n        0:p        0:p        0:n       
 region   Saturation Linear     Saturation Saturation Saturation Saturation
  id       272.7818u    1.1304p   25.0322u  -25.0322u  -25.0322u   23.5157u
  ibs        0.        11.1924f    0.        13.0642f    0.         0.     
  ibd      -27.2082f   11.1924f  -19.3318f   30.6682f   13.0642f  -10.5878f
  vgs        1.0588    -1.9476     1.0588    -1.7604    -1.3064     1.0588 
  vds        2.7208     3.5492n    1.9332    -1.7604    -1.3064     1.0588 
  vbs        0.         1.1192     0.         1.3064     0.         0.     
  vth      800.0000m   -1.2097   800.0000m   -1.2639  -800.0000m  800.0000m
  vdsat    258.7799m   -3.5492n  258.7799m -496.5477m -506.4185m  258.7799m
  vod      258.7799m -737.8797m  258.7799m -496.5477m -506.4185m  258.7799m
  beta       8.1467m  431.6430u  747.5975u  203.0518u  195.2134u  702.3063u
  gam eff  800.0000m  800.0000m  800.0000m  800.0000m  800.0000m  800.0000m
  gm         2.1082m    1.5320p  193.4632u  100.8249u   98.8597u  181.7427u
  gds       17.9216u  318.5006u    1.7344u    2.1285u    2.2140u    1.7344u
  gmb        1.0079m  454.3322f   92.4931u   28.4719u   47.2640u   86.8897u
  cdtot     18.9107f    9.9063f    1.8214f    1.2130f    1.2096f    1.8117f
  cgtot     96.5902f   19.8960f    9.3387f    6.1434f    6.1609f    9.3291f
  cstot     75.6923f    9.9063f    7.3251f    4.8834f    4.8834f    7.3251f
  cbtot      1.9872f   83.3732a  192.3110a   47.1068a   67.8958a  192.3110a
  cgs       75.6923f    9.9063f    7.3251f    4.8834f    4.8834f    7.3251f
  cgd       18.9107f    9.9063f    1.8214f    1.2130f    1.2096f    1.8117f



 subckt                                                                    
 element  0:m13      0:m14      0:m15      0:m16      0:m17      0:m18     
 model    0:p        0:p        0:n        0:n        0:n        0:n       
 region   Saturation Saturation Saturation Cutoff     Saturation Saturation
  id       -23.5157u  -23.5157u   39.7310u    0.        39.7310u   39.7310u
  ibs       13.3121f    1.7872f    0.       -10.5878f  -11.3542f  -28.5870f
  ibd       39.4122f   13.3121f  -11.3542f  -50.0000f  -28.5870f  -50.0000f
  vgs       -1.7356    -1.1277     1.1354    76.6427m    1.7233     2.1413 
  vds       -2.6100    -1.1525     1.1354     3.9412     1.7233     2.1413 
  vbs        1.3312   178.7192m    0.        -1.0588    -1.1354    -2.8587 
  vth       -1.2708  -880.5921m  800.0000m    1.1916     1.2145     1.6398 
  vdsat   -464.7760m -247.1072m  335.4226m    0.       508.7828m  501.4671m
  vod     -464.7760m -247.1072m  335.4226m   -1.1150   508.7828m  501.4671m
  beta     217.7209u  770.2231u  706.2761u  647.4645u  306.9689u  315.9907u
  gam eff  800.0000m  800.0000m  800.0000m  800.0000m  800.0000m  800.0000m
  gm       101.1914u  190.3277u  236.9010u    0.       156.1805u  158.4590u
  gds        1.8648u    2.1086u    2.9138u    0.         2.7934u    2.7136u
  gmb       28.4005u   81.2151u  113.2603u    0.        46.1125u   33.5994u
  cdtot      1.2192f    4.8340f    1.8125f    1.8008f  757.9343a  759.8590a
  cgtot      6.1526f   24.8624f    9.2884f    6.1257f    3.8398f    3.8351f
  cstot      4.8834f   19.5335f    7.3251f    1.8974f    3.0521f    3.0521f
  cbtot     49.9542a  494.9229a  150.8414a    2.4276f   29.7718a   23.1694a
  cgs        4.8834f   19.5335f    7.3251f    1.8974f    3.0521f    3.0521f
  cgd        1.2192f    4.8340f    1.8125f    1.8008f  757.9343a  759.8590a



 ******  
 lab8.sp

 ****** noise analysis tnom=  25.000 temp=  25.000 ******
 

====== Noise output port at: v(7)                            ======
 
     frequency =   1.0000        Hz

  
 Element Source Noise (V^2/Hz) Source Value (A^2/Hz) Source rx (Ohm) Integrated noise (V) Percent of Total (%) 
 m2      TOT    97.7097p                                             0.                   35.0829              
         rd     0.             0.                    0.              0.                                        
         rs     0.             0.                    0.              0.                                        
         id     97.7097p       1.97846e-23           2.22231x        0.                                        
         fn     0.             0.                    2.22231x        0.                                        
 m1      TOT    97.6913p                                             0.                   35.0764              
         rd     0.             0.                    0.              0.                                        
         rs     0.             0.                    0.              0.                                        
         id     97.6913p       1.97846e-23           2.22211x        0.                                        
         fn     0.             0.                    2.22211x        0.                                        
 m5      TOT    42.5575p                                             0.                   15.2804              
         rd     0.             0.                    0.              0.                                        
         rs     0.             0.                    0.              0.                                        
         id     42.5575p       8.40937e-24           2.24960x        0.                                        
         fn     0.             0.                    2.24960x        0.                                        
 m4      TOT    40.5097p                                             0.                   14.5451              
         rd     0.             0.                    0.              0.                                        
         rs     0.             0.                    0.              0.                                        
         id     40.5097p       8.40937e-24           2.19481x        0.                                        
         fn     0.             0.                    2.19481x        0.                                        
 m3      TOT    15.4524f                                             0.                   5.54823m             
         rd     0.             0.                    0.              0.                                        
         rs     0.             0.                    0.              0.                                        
         id     15.4524f       2.07481e-23           27.2903k        0.                                        
         fn     0.             0.                    27.2903k        0.                                        
 m7      TOT    14.3652f                                             0.                   5.15787m             
         rd     0.             0.                    0.              0.                                        
         rs     0.             0.                    0.              0.                                        
         id     14.3652f       2.31416e-23           24.9149k        0.                                        
         fn     0.             0.                    24.9149k        0.                                        
 m6      TOT    11.6447f                                             0.                   4.18106m             
         rd     0.             0.                    0.              0.                                        
         rs     0.             0.                    0.              0.                                        
         id     11.6447f       1.8759e-23            24.9149k        0.                                        
         fn     0.             0.                    24.9149k        0.                                        
 m12     TOT    383.276a                                             0.                   137.616u             
         rd     0.             0.                    0.              0.                                        
         rs     0.             0.                    0.              0.                                        
         id     383.276a       1.99497e-24           13.8608k        0.                                        
         fn     0.             0.                    13.8608k        0.                                        
 rb      TOT    187.850a                                             0.                   67.4481u             
         rs     187.850a       2.16649e-24           9.31167k        0.                                        
         1/f    0.             0.                    9.31167k        0.                                        
 m9      TOT    145.339a                                             0.                   52.1846u             
         rd     0.             0.                    0.              0.                                        
         rs     0.             0.                    0.              0.                                        
         id     145.339a       2.12362e-24           8.27282k        0.                                        
         fn     0.             0.                    8.27282k        0.                                        
 m11     TOT    75.5085a                                             0.                   27.1115u             
         rd     0.             0.                    0.              0.                                        
         rs     0.             0.                    0.              0.                                        
         id     75.5085a       1.08517e-24           8.34159k        0.                                        
         fn     0.             0.                    8.34159k        0.                                        
 m14     TOT    41.8806a                                             0.                   15.0374u             
         rd     0.             0.                    0.              0.                                        
         rs     0.             0.                    0.              0.                                        
         id     41.8806a       2.0892e-24            4.47730k        0.                                        
         fn     0.             0.                    4.47730k        0.                                        
 m13     TOT    5.72875e-21                                          0.                   2.05693n             
         rd     0.             0.                    0.              0.                                        
         rs     0.             0.                    0.              0.                                        
         id     5.72875e-21    1.11077e-24           71.8156         0.                                        
         fn     0.             0.                    71.8156         0.                                        
 m10     TOT    5.23521e-21                                          0.                   1.87972n             
         rd     0.             0.                    0.              0.                                        
         rs     0.             0.                    0.              0.                                        
         id     5.23521e-21    1.10674e-24           68.7771         0.                                        
         fn     0.             0.                    68.7771         0.                                        
 m8      TOT    1.88546e-34                                          0.                   6.76982e-23          
         rd     0.             0.                    0.              0.                                        
         rs     0.             0.                    0.              0.                                        
         id     1.88546e-34    1.68165e-32           105.887m        0.                                        
         fn     0.             0.                    105.887m        0.                                        
 m15     TOT    5.70667e-37                                          0.                   2.049e-25            
         rd     0.             0.                    0.              0.                                        
         rs     0.             0.                    0.              0.                                        
         id     5.70667e-37    2.60043e-24           468.456n        0.                                        
         fn     0.             0.                    468.456n        0.                                        
 m17     TOT    1.14055e-37                                          0.                   4.09517e-26          
         rd     0.             0.                    0.              0.                                        
         rs     0.             0.                    0.              0.                                        
         id     1.14055e-37    1.71437e-24           257.931n        0.                                        
         fn     0.             0.                    257.931n        0.                                        
 m18     TOT    7.70907e-38                                          0.                   2.76796e-26          
         rd     0.             0.                    0.              0.                                        
         rs     0.             0.                    0.              0.                                        
         id     7.70907e-38    1.73938e-24           210.525n        0.                                        
         fn     0.             0.                    210.525n        0.                                        
 m16     TOT    0.                                                   0.                   0.                   
         rd     0.             0.                    0.              0.                                        
         rs     0.             0.                    0.              0.                                        
         id     0.             0.                    13.8608k        0.                                        
         fn     0.             0.                    13.8608k        0.                                        
 



 **** total output noise voltage         = 278.5104p       V^2/Hz
                                         =  16.6886u       V/sqrt(Hz)

       transfer function value:
        v(7)/vin1                        =   4.0055k      
      equivalent input noise at vin1                          
                                         =   4.1665n       V/sqrt(Hz)
 


 **** the results of the sqrt of integral (V^2 / freq)
      from fstart upto    1.0000        Hz. using more freq points 
      results in more accurate total noise values.     

 **** total output noise voltage   =    0.           V 

  **** total equivalent input noise =    0.           V   



 ******  
 lab8.sp

 ****** noise analysis tnom=  25.000 temp=  25.000 ******
 

====== Noise output port at: v(7)                            ======
 
     frequency =   1.2589        Hz

  
 Element Source Noise (V^2/Hz) Source Value (A^2/Hz) Source rx (Ohm) Integrated noise (V) Percent of Total (%) 
 m2      TOT    97.7097p                                             5.02986u             35.0829              
         rd     0.             0.                    0.              0.                                        
         rs     0.             0.                    0.              0.                                        
         id     97.7097p       1.97846e-23           2.22231x        5.02986u                                  
         fn     0.             0.                    2.22231x        0.                                        
 m1      TOT    97.6913p                                             5.02939u             35.0764              
         rd     0.             0.                    0.              0.                                        
         rs     0.             0.                    0.              0.                                        
         id     97.6913p       1.97846e-23           2.22211x        5.02939u                                  
         fn     0.             0.                    2.22211x        0.                                        
 m5      TOT    42.5575p                                             3.31952u             15.2804              
         rd     0.             0.                    0.              0.                                        
         rs     0.             0.                    0.              0.                                        
         id     42.5575p       8.40937e-24           2.24960x        3.31952u                                  
         fn     0.             0.                    2.24960x        0.                                        
 m4      TOT    40.5097p                                             3.23867u             14.5451              
         rd     0.             0.                    0.              0.                                        
         rs     0.             0.                    0.              0.                                        
         id     40.5097p       8.40937e-24           2.19481x        3.23867u                                  
         fn     0.             0.                    2.19481x        0.                                        
 m3      TOT    15.4524f                                             63.2536n             5.54823m             
         rd     0.             0.                    0.              0.                                        
         rs     0.             0.                    0.              0.                                        
         id     15.4524f       2.07481e-23           27.2903k        63.2536n                                  
         fn     0.             0.                    27.2903k        0.                                        
 m7      TOT    14.3652f                                             60.9879n             5.15787m             
         rd     0.             0.                    0.              0.                                        
         rs     0.             0.                    0.              0.                                        
         id     14.3652f       2.31416e-23           24.9149k        60.9879n                                  
         fn     0.             0.                    24.9149k        0.                                        
 m6      TOT    11.6447f                                             54.9100n             4.18106m             
         rd     0.             0.                    0.              0.                                        
         rs     0.             0.                    0.              0.                                        
         id     11.6447f       1.8759e-23            24.9149k        54.9100n                                  
         fn     0.             0.                    24.9149k        0.                                        
 m12     TOT    383.276a                                             9.96192n             137.616u             
         rd     0.             0.                    0.              0.                                        
         rs     0.             0.                    0.              0.                                        
         id     383.276a       1.99497e-24           13.8608k        9.96192n                                  
         fn     0.             0.                    13.8608k        0.                                        
 rb      TOT    187.850a                                             6.97418n             67.4481u             
         rs     187.850a       2.16649e-24           9.31167k        6.97418n                                  
         1/f    0.             0.                    9.31167k        0.                                        
 m9      TOT    145.339a                                             6.13450n             52.1846u             
         rd     0.             0.                    0.              0.                                        
         rs     0.             0.                    0.              0.                                        
         id     145.339a       2.12362e-24           8.27282k        6.13450n                                  
         fn     0.             0.                    8.27282k        0.                                        
 m11     TOT    75.5085a                                             4.42166n             27.1115u             
         rd     0.             0.                    0.              0.                                        
         rs     0.             0.                    0.              0.                                        
         id     75.5085a       1.08517e-24           8.34159k        4.42166n                                  
         fn     0.             0.                    8.34159k        0.                                        
 m14     TOT    41.8806a                                             3.29302n             15.0374u             
         rd     0.             0.                    0.              0.                                        
         rs     0.             0.                    0.              0.                                        
         id     41.8806a       2.0892e-24            4.47730k        3.29302n                                  
         fn     0.             0.                    4.47730k        0.                                        
 m13     TOT    5.72875e-21                                          38.5139p             2.05693n             
         rd     0.             0.                    0.              0.                                        
         rs     0.             0.                    0.              0.                                        
         id     5.72875e-21    1.11077e-24           71.8156         38.5139p                                  
         fn     0.             0.                    71.8156         0.                                        
 m10     TOT    5.23521e-21                                          36.8175p             1.87972n             
         rd     0.             0.                    0.              0.                                        
         rs     0.             0.                    0.              0.                                        
         id     5.23521e-21    1.10674e-24           68.7771         36.8175p                                  
         fn     0.             0.                    68.7771         0.                                        
 m8      TOT    2.98826e-34                                          7.94333a             1.07294e-22          
         rd     0.             0.                    0.              0.                                        
         rs     0.             0.                    0.              0.                                        
         id     2.98826e-34    1.68165e-32           133.303m        7.94333a                                  
         fn     0.             0.                    133.303m        0.                                        
 m15     TOT    9.04447e-37                                          4.37004e-19          3.24744e-25          
         rd     0.             0.                    0.              0.                                        
         rs     0.             0.                    0.              0.                                        
         id     9.04447e-37    2.60043e-24           589.751n        4.37004e-19                               
         fn     0.             0.                    589.751n        0.                                        
 m17     TOT    1.80764e-37                                          1.95367e-19          6.4904e-26           
         rd     0.             0.                    0.              0.                                        
         rs     0.             0.                    0.              0.                                        
         id     1.80764e-37    1.71437e-24           324.716n        1.95367e-19                               
         fn     0.             0.                    324.716n        0.                                        
 m18     TOT    1.2218e-37                                           1.60618e-19          4.38693e-26          
         rd     0.             0.                    0.              0.                                        
         rs     0.             0.                    0.              0.                                        
         id     1.2218e-37     1.73938e-24           265.035n        1.60618e-19                               
         fn     0.             0.                    265.035n        0.                                        
 m16     TOT    0.                                                   0.                   0.                   
         rd     0.             0.                    0.              0.                                        
         rs     0.             0.                    0.              0.                                        
         id     0.             0.                    13.8608k        0.                                        
         fn     0.             0.                    13.8608k        0.                                        
 



 **** total output noise voltage         = 278.5104p       V^2/Hz
                                         =  16.6886u       V/sqrt(Hz)

       transfer function value:
        v(7)/vin1                        =   4.0055k      
      equivalent input noise at vin1                          
                                         =   4.1665n       V/sqrt(Hz)
 


 **** the results of the sqrt of integral (V^2 / freq)
      from fstart upto    1.2589        Hz. using more freq points 
      results in more accurate total noise values.     

 **** total output noise voltage   =    8.4920u      V 

  **** total equivalent input noise =    2.1201n      V   



 ******  
 lab8.sp

 ****** noise analysis tnom=  25.000 temp=  25.000 ******
 

====== Noise output port at: v(7)                            ======
 
     frequency =   1.5849        Hz

  
 Element Source Noise (V^2/Hz) Source Value (A^2/Hz) Source rx (Ohm) Integrated noise (V) Percent of Total (%) 
 m2      TOT    97.7097p                                             7.55974u             35.0829              
         rd     0.             0.                    0.              0.                                        
         rs     0.             0.                    0.              0.                                        
         id     97.7097p       1.97846e-23           2.22231x        7.55974u                                  
         fn     0.             0.                    2.22231x        0.                                        
 m1      TOT    97.6913p                                             7.55903u             35.0764              
         rd     0.             0.                    0.              0.                                        
         rs     0.             0.                    0.              0.                                        
         id     97.6913p       1.97846e-23           2.22211x        7.55903u                                  
         fn     0.             0.                    2.22211x        0.                                        
 m5      TOT    42.5575p                                             4.98914u             15.2804              
         rd     0.             0.                    0.              0.                                        
         rs     0.             0.                    0.              0.                                        
         id     42.5575p       8.40937e-24           2.24960x        4.98914u                                  
         fn     0.             0.                    2.24960x        0.                                        
 m4      TOT    40.5097p                                             4.86763u             14.5451              
         rd     0.             0.                    0.              0.                                        
         rs     0.             0.                    0.              0.                                        
         id     40.5097p       8.40937e-24           2.19481x        4.86763u                                  
         fn     0.             0.                    2.19481x        0.                                        
 m3      TOT    15.4524f                                             95.0684n             5.54823m             
         rd     0.             0.                    0.              0.                                        
         rs     0.             0.                    0.              0.                                        
         id     15.4524f       2.07481e-23           27.2903k        95.0684n                                  
         fn     0.             0.                    27.2903k        0.                                        
 m7      TOT    14.3652f                                             91.6630n             5.15787m             
         rd     0.             0.                    0.              0.                                        
         rs     0.             0.                    0.              0.                                        
         id     14.3652f       2.31416e-23           24.9149k        91.6630n                                  
         fn     0.             0.                    24.9149k        0.                                        
 m6      TOT    11.6447f                                             82.5281n             4.18106m             
         rd     0.             0.                    0.              0.                                        
         rs     0.             0.                    0.              0.                                        
         id     11.6447f       1.8759e-23            24.9149k        82.5281n                                  
         fn     0.             0.                    24.9149k        0.                                        
 m12     TOT    383.276a                                             14.9725n             137.616u             
         rd     0.             0.                    0.              0.                                        
         rs     0.             0.                    0.              0.                                        
         id     383.276a       1.99497e-24           13.8608k        14.9725n                                  
         fn     0.             0.                    13.8608k        0.                                        
 rb      TOT    187.850a                                             10.4820n             67.4481u             
         rs     187.850a       2.16649e-24           9.31167k        10.4820n                                  
         1/f    0.             0.                    9.31167k        0.                                        
 m9      TOT    145.339a                                             9.21998n             52.1846u             
         rd     0.             0.                    0.              0.                                        
         rs     0.             0.                    0.              0.                                        
         id     145.339a       2.12362e-24           8.27282k        9.21998n                                  
         fn     0.             0.                    8.27282k        0.                                        
 m11     TOT    75.5085a                                             6.64563n             27.1115u             
         rd     0.             0.                    0.              0.                                        
         rs     0.             0.                    0.              0.                                        
         id     75.5085a       1.08517e-24           8.34159k        6.64563n                                  
         fn     0.             0.                    8.34159k        0.                                        
 m14     TOT    41.8806a                                             4.94931n             15.0374u             
         rd     0.             0.                    0.              0.                                        
         rs     0.             0.                    0.              0.                                        
         id     41.8806a       2.0892e-24            4.47730k        4.94931n                                  
         fn     0.             0.                    4.47730k        0.                                        
 m13     TOT    5.72875e-21                                          57.8853p             2.05693n             
         rd     0.             0.                    0.              0.                                        
         rs     0.             0.                    0.              0.                                        
         id     5.72875e-21    1.11077e-24           71.8156         57.8853p                                  
         fn     0.             0.                    71.8156         0.                                        
 m10     TOT    5.23521e-21                                          55.3357p             1.87972n             
         rd     0.             0.                    0.              0.                                        
         rs     0.             0.                    0.              0.                                        
         id     5.23521e-21    1.10674e-24           68.7771         55.3357p                                  
         fn     0.             0.                    68.7771         0.                                        
 m8      TOT    4.73607e-34                                          13.7474a             1.7005e-22           
         rd     0.             0.                    0.              0.                                        
         rs     0.             0.                    0.              0.                                        
         id     4.73607e-34    1.68165e-32           167.819m        13.7474a                                  
         fn     0.             0.                    167.819m        0.                                        
 m15     TOT    1.43345e-36                                          7.56315e-19          5.14685e-25          
         rd     0.             0.                    0.              0.                                        
         rs     0.             0.                    0.              0.                                        
         id     1.43345e-36    2.60043e-24           742.453n        7.56315e-19                               
         fn     0.             0.                    742.453n        0.                                        
 m17     TOT    2.86492e-37                                          3.38117e-19          1.02866e-25          
         rd     0.             0.                    0.              0.                                        
         rs     0.             0.                    0.              0.                                        
         id     2.86492e-37    1.71437e-24           408.793n        3.38117e-19                               
         fn     0.             0.                    408.793n        0.                                        
 m18     TOT    1.93643e-37                                          2.77979e-19          6.95281e-26          
         rd     0.             0.                    0.              0.                                        
         rs     0.             0.                    0.              0.                                        
         id     1.93643e-37    1.73938e-24           333.659n        2.77979e-19                               
         fn     0.             0.                    333.659n        0.                                        
 m16     TOT    0.                                                   0.                   0.                   
         rd     0.             0.                    0.              0.                                        
         rs     0.             0.                    0.              0.                                        
         id     0.             0.                    13.8608k        0.                                        
         fn     0.             0.                    13.8608k        0.                                        
 



 **** total output noise voltage         = 278.5104p       V^2/Hz
                                         =  16.6886u       V/sqrt(Hz)

       transfer function value:
        v(7)/vin1                        =   4.0055k      
      equivalent input noise at vin1                          
                                         =   4.1665n       V/sqrt(Hz)
 


 **** the results of the sqrt of integral (V^2 / freq)
      from fstart upto    1.5849        Hz. using more freq points 
      results in more accurate total noise values.     

 **** total output noise voltage   =   12.7632u      V 

  **** total equivalent input noise =    3.1864n      V   



 ******  
 lab8.sp

 ****** noise analysis tnom=  25.000 temp=  25.000 ******
 

====== Noise output port at: v(7)                            ======
 
     frequency =   1.9953        Hz

  
 Element Source Noise (V^2/Hz) Source Value (A^2/Hz) Source rx (Ohm) Integrated noise (V) Percent of Total (%) 
 m2      TOT    97.7097p                                             9.86138u             35.0829              
         rd     0.             0.                    0.              0.                                        
         rs     0.             0.                    0.              0.                                        
         id     97.7097p       1.97846e-23           2.22231x        9.86138u                                  
         fn     0.             0.                    2.22231x        0.                                        
 m1      TOT    97.6913p                                             9.86045u             35.0764              
         rd     0.             0.                    0.              0.                                        
         rs     0.             0.                    0.              0.                                        
         id     97.6913p       1.97846e-23           2.22211x        9.86045u                                  
         fn     0.             0.                    2.22211x        0.                                        
 m5      TOT    42.5575p                                             6.50814u             15.2804              
         rd     0.             0.                    0.              0.                                        
         rs     0.             0.                    0.              0.                                        
         id     42.5575p       8.40937e-24           2.24960x        6.50814u                                  
         fn     0.             0.                    2.24960x        0.                                        
 m4      TOT    40.5097p                                             6.34963u             14.5451              
         rd     0.             0.                    0.              0.                                        
         rs     0.             0.                    0.              0.                                        
         id     40.5097p       8.40937e-24           2.19481x        6.34963u                                  
         fn     0.             0.                    2.19481x        0.                                        
 m3      TOT    15.4524f                                             124.013n             5.54823m             
         rd     0.             0.                    0.              0.                                        
         rs     0.             0.                    0.              0.                                        
         id     15.4524f       2.07481e-23           27.2903k        124.013n                                  
         fn     0.             0.                    27.2903k        0.                                        
 m7      TOT    14.3652f                                             119.571n             5.15787m             
         rd     0.             0.                    0.              0.                                        
         rs     0.             0.                    0.              0.                                        
         id     14.3652f       2.31416e-23           24.9149k        119.571n                                  
         fn     0.             0.                    24.9149k        0.                                        
 m6      TOT    11.6447f                                             107.655n             4.18106m             
         rd     0.             0.                    0.              0.                                        
         rs     0.             0.                    0.              0.                                        
         id     11.6447f       1.8759e-23            24.9149k        107.655n                                  
         fn     0.             0.                    24.9149k        0.                                        
 m12     TOT    383.276a                                             19.5310n             137.616u             
         rd     0.             0.                    0.              0.                                        
         rs     0.             0.                    0.              0.                                        
         id     383.276a       1.99497e-24           13.8608k        19.5310n                                  
         fn     0.             0.                    13.8608k        0.                                        
 rb      TOT    187.850a                                             13.6733n             67.4481u             
         rs     187.850a       2.16649e-24           9.31167k        13.6733n                                  
         1/f    0.             0.                    9.31167k        0.                                        
 m9      TOT    145.339a                                             12.0271n             52.1846u             
         rd     0.             0.                    0.              0.                                        
         rs     0.             0.                    0.              0.                                        
         id     145.339a       2.12362e-24           8.27282k        12.0271n                                  
         fn     0.             0.                    8.27282k        0.                                        
 m11     TOT    75.5085a                                             8.66895n             27.1115u             
         rd     0.             0.                    0.              0.                                        
         rs     0.             0.                    0.              0.                                        
         id     75.5085a       1.08517e-24           8.34159k        8.66895n                                  
         fn     0.             0.                    8.34159k        0.                                        
 m14     TOT    41.8806a                                             6.45618n             15.0374u             
         rd     0.             0.                    0.              0.                                        
         rs     0.             0.                    0.              0.                                        
         id     41.8806a       2.0892e-24            4.47730k        6.45618n                                  
         fn     0.             0.                    4.47730k        0.                                        
 m13     TOT    5.72875e-21                                          75.5090p             2.05693n             
         rd     0.             0.                    0.              0.                                        
         rs     0.             0.                    0.              0.                                        
         id     5.72875e-21    1.11077e-24           71.8156         75.5090p                                  
         fn     0.             0.                    71.8156         0.                                        
 m10     TOT    5.23521e-21                                          72.1832p             1.87972n             
         rd     0.             0.                    0.              0.                                        
         rs     0.             0.                    0.              0.                                        
         id     5.23521e-21    1.10674e-24           68.7771         72.1832p                                  
         fn     0.             0.                    68.7771         0.                                        
 m8      TOT    7.50617e-34                                          20.9805a             2.69511e-22          
         rd     0.             0.                    0.              0.                                        
         rs     0.             0.                    0.              0.                                        
         id     7.50617e-34    1.68165e-32           211.271m        20.9805a                                  
         fn     0.             0.                    211.271m        0.                                        
 m15     TOT    2.27187e-36                                          1.15425a             8.15721e-25          
         rd     0.             0.                    0.              0.                                        
         rs     0.             0.                    0.              0.                                        
         id     2.27187e-36    2.60043e-24           934.693n        1.15425a                                  
         fn     0.             0.                    934.693n        0.                                        
 m17     TOT    4.5406e-37                                           5.16017e-19          1.63032e-25          
         rd     0.             0.                    0.              0.                                        
         rs     0.             0.                    0.              0.                                        
         id     4.5406e-37     1.71437e-24           514.640n        5.16017e-19                               
         fn     0.             0.                    514.640n        0.                                        
 m18     TOT    3.06903e-37                                          4.24237e-19          1.10195e-25          
         rd     0.             0.                    0.              0.                                        
         rs     0.             0.                    0.              0.                                        
         id     3.06903e-37    1.73938e-24           420.052n        4.24237e-19                               
         fn     0.             0.                    420.052n        0.                                        
 m16     TOT    0.                                                   0.                   0.                   
         rd     0.             0.                    0.              0.                                        
         rs     0.             0.                    0.              0.                                        
         id     0.             0.                    13.8608k        0.                                        
         fn     0.             0.                    13.8608k        0.                                        
 



 **** total output noise voltage         = 278.5104p       V^2/Hz
                                         =  16.6886u       V/sqrt(Hz)

       transfer function value:
        v(7)/vin1                        =   4.0055k      
      equivalent input noise at vin1                          
                                         =   4.1665n       V/sqrt(Hz)
 


 **** the results of the sqrt of integral (V^2 / freq)
      from fstart upto    1.9953        Hz. using more freq points 
      results in more accurate total noise values.     

 **** total output noise voltage   =   16.6491u      V 

  **** total equivalent input noise =    4.1566n      V   



 ******  
 lab8.sp

 ****** noise analysis tnom=  25.000 temp=  25.000 ******
 

====== Noise output port at: v(7)                            ======
 
     frequency =   2.5119        Hz

  
 Element Source Noise (V^2/Hz) Source Value (A^2/Hz) Source rx (Ohm) Integrated noise (V) Percent of Total (%) 
 m2      TOT    97.7097p                                             12.1543u             35.0829              
         rd     0.             0.                    0.              0.                                        
         rs     0.             0.                    0.              0.                                        
         id     97.7097p       1.97846e-23           2.22231x        12.1543u                                  
         fn     0.             0.                    2.22231x        0.                                        
 m1      TOT    97.6913p                                             12.1531u             35.0764              
         rd     0.             0.                    0.              0.                                        
         rs     0.             0.                    0.              0.                                        
         id     97.6913p       1.97846e-23           2.22211x        12.1531u                                  
         fn     0.             0.                    2.22211x        0.                                        
 m5      TOT    42.5575p                                             8.02135u             15.2804              
         rd     0.             0.                    0.              0.                                        
         rs     0.             0.                    0.              0.                                        
         id     42.5575p       8.40937e-24           2.24960x        8.02135u                                  
         fn     0.             0.                    2.24960x        0.                                        
 m4      TOT    40.5097p                                             7.82599u             14.5451              
         rd     0.             0.                    0.              0.                                        
         rs     0.             0.                    0.              0.                                        
         id     40.5097p       8.40937e-24           2.19481x        7.82599u                                  
         fn     0.             0.                    2.19481x        0.                                        
 m3      TOT    15.4524f                                             152.847n             5.54823m             
         rd     0.             0.                    0.              0.                                        
         rs     0.             0.                    0.              0.                                        
         id     15.4524f       2.07481e-23           27.2903k        152.847n                                  
         fn     0.             0.                    27.2903k        0.                                        
 m7      TOT    14.3652f                                             147.372n             5.15787m             
         rd     0.             0.                    0.              0.                                        
         rs     0.             0.                    0.              0.                                        
         id     14.3652f       2.31416e-23           24.9149k        147.372n                                  
         fn     0.             0.                    24.9149k        0.                                        
 m6      TOT    11.6447f                                             132.685n             4.18106m             
         rd     0.             0.                    0.              0.                                        
         rs     0.             0.                    0.              0.                                        
         id     11.6447f       1.8759e-23            24.9149k        132.685n                                  
         fn     0.             0.                    24.9149k        0.                                        
 m12     TOT    383.276a                                             24.0722n             137.616u             
         rd     0.             0.                    0.              0.                                        
         rs     0.             0.                    0.              0.                                        
         id     383.276a       1.99497e-24           13.8608k        24.0722n                                  
         fn     0.             0.                    13.8608k        0.                                        
 rb      TOT    187.850a                                             16.8525n             67.4481u             
         rs     187.850a       2.16649e-24           9.31167k        16.8525n                                  
         1/f    0.             0.                    9.31167k        0.                                        
 m9      TOT    145.339a                                             14.8235n             52.1846u             
         rd     0.             0.                    0.              0.                                        
         rs     0.             0.                    0.              0.                                        
         id     145.339a       2.12362e-24           8.27282k        14.8235n                                  
         fn     0.             0.                    8.27282k        0.                                        
 m11     TOT    75.5085a                                             10.6846n             27.1115u             
         rd     0.             0.                    0.              0.                                        
         rs     0.             0.                    0.              0.                                        
         id     75.5085a       1.08517e-24           8.34159k        10.6846n                                  
         fn     0.             0.                    8.34159k        0.                                        
 m14     TOT    41.8806a                                             7.95731n             15.0374u             
         rd     0.             0.                    0.              0.                                        
         rs     0.             0.                    0.              0.                                        
         id     41.8806a       2.0892e-24            4.47730k        7.95731n                                  
         fn     0.             0.                    4.47730k        0.                                        
 m13     TOT    5.72875e-21                                          93.0657p             2.05693n             
         rd     0.             0.                    0.              0.                                        
         rs     0.             0.                    0.              0.                                        
         id     5.72875e-21    1.11077e-24           71.8156         93.0657p                                  
         fn     0.             0.                    71.8156         0.                                        
 m10     TOT    5.23521e-21                                          88.9666p             1.87972n             
         rd     0.             0.                    0.              0.                                        
         rs     0.             0.                    0.              0.                                        
         id     5.23521e-21    1.10674e-24           68.7771         88.9666p                                  
         fn     0.             0.                    68.7771         0.                                        
 m8      TOT    1.18965e-33                                          30.6819a             4.27146e-22          
         rd     0.             0.                    0.              0.                                        
         rs     0.             0.                    0.              0.                                        
         id     1.18965e-33    1.68165e-32           265.975m        30.6819a                                  
         fn     0.             0.                    265.975m        0.                                        
 m15     TOT    3.60067e-36                                          1.68797a             1.29283e-24          
         rd     0.             0.                    0.              0.                                        
         rs     0.             0.                    0.              0.                                        
         id     3.60067e-36    2.60043e-24           1.17671u        1.68797a                                  
         fn     0.             0.                    1.17671u        0.                                        
 m17     TOT    7.19636e-37                                          7.54621e-19          2.58388e-25          
         rd     0.             0.                    0.              0.                                        
         rs     0.             0.                    0.              0.                                        
         id     7.19636e-37    1.71437e-24           647.894n        7.54621e-19                               
         fn     0.             0.                    647.894n        0.                                        
 m18     TOT    4.86409e-37                                          6.20402e-19          1.74647e-25          
         rd     0.             0.                    0.              0.                                        
         rs     0.             0.                    0.              0.                                        
         id     4.86409e-37    1.73938e-24           528.814n        6.20402e-19                               
         fn     0.             0.                    528.814n        0.                                        
 m16     TOT    0.                                                   0.                   0.                   
         rd     0.             0.                    0.              0.                                        
         rs     0.             0.                    0.              0.                                        
         id     0.             0.                    13.8608k        0.                                        
         fn     0.             0.                    13.8608k        0.                                        
 



 **** total output noise voltage         = 278.5104p       V^2/Hz
                                         =  16.6886u       V/sqrt(Hz)

       transfer function value:
        v(7)/vin1                        =   4.0055k      
      equivalent input noise at vin1                          
                                         =   4.1665n       V/sqrt(Hz)
 


 **** the results of the sqrt of integral (V^2 / freq)
      from fstart upto    2.5119        Hz. using more freq points 
      results in more accurate total noise values.     

 **** total output noise voltage   =   20.5201u      V 

  **** total equivalent input noise =    5.1230n      V   



 ******  
 lab8.sp

 ****** noise analysis tnom=  25.000 temp=  25.000 ******
 

====== Noise output port at: v(7)                            ======
 
     frequency =   3.1623        Hz

  
 Element Source Noise (V^2/Hz) Source Value (A^2/Hz) Source rx (Ohm) Integrated noise (V) Percent of Total (%) 
 m2      TOT    97.7097p                                             14.5353u             35.0829              
         rd     0.             0.                    0.              0.                                        
         rs     0.             0.                    0.              0.                                        
         id     97.7097p       1.97846e-23           2.22231x        14.5353u                                  
         fn     0.             0.                    2.22231x        0.                                        
 m1      TOT    97.6913p                                             14.5339u             35.0764              
         rd     0.             0.                    0.              0.                                        
         rs     0.             0.                    0.              0.                                        
         id     97.6913p       1.97846e-23           2.22211x        14.5339u                                  
         fn     0.             0.                    2.22211x        0.                                        
 m5      TOT    42.5575p                                             9.59276u             15.2804              
         rd     0.             0.                    0.              0.                                        
         rs     0.             0.                    0.              0.                                        
         id     42.5575p       8.40937e-24           2.24960x        9.59276u                                  
         fn     0.             0.                    2.24960x        0.                                        
 m4      TOT    40.5097p                                             9.35913u             14.5451              
         rd     0.             0.                    0.              0.                                        
         rs     0.             0.                    0.              0.                                        
         id     40.5097p       8.40937e-24           2.19481x        9.35913u                                  
         fn     0.             0.                    2.19481x        0.                                        
 m3      TOT    15.4524f                                             182.790n             5.54823m             
         rd     0.             0.                    0.              0.                                        
         rs     0.             0.                    0.              0.                                        
         id     15.4524f       2.07481e-23           27.2903k        182.790n                                  
         fn     0.             0.                    27.2903k        0.                                        
 m7      TOT    14.3652f                                             176.243n             5.15787m             
         rd     0.             0.                    0.              0.                                        
         rs     0.             0.                    0.              0.                                        
         id     14.3652f       2.31416e-23           24.9149k        176.243n                                  
         fn     0.             0.                    24.9149k        0.                                        
 m6      TOT    11.6447f                                             158.679n             4.18106m             
         rd     0.             0.                    0.              0.                                        
         rs     0.             0.                    0.              0.                                        
         id     11.6447f       1.8759e-23            24.9149k        158.679n                                  
         fn     0.             0.                    24.9149k        0.                                        
 m12     TOT    383.276a                                             28.7880n             137.616u             
         rd     0.             0.                    0.              0.                                        
         rs     0.             0.                    0.              0.                                        
         id     383.276a       1.99497e-24           13.8608k        28.7880n                                  
         fn     0.             0.                    13.8608k        0.                                        
 rb      TOT    187.850a                                             20.1540n             67.4481u             
         rs     187.850a       2.16649e-24           9.31167k        20.1540n                                  
         1/f    0.             0.                    9.31167k        0.                                        
 m9      TOT    145.339a                                             17.7275n             52.1846u             
         rd     0.             0.                    0.              0.                                        
         rs     0.             0.                    0.              0.                                        
         id     145.339a       2.12362e-24           8.27282k        17.7275n                                  
         fn     0.             0.                    8.27282k        0.                                        
 m11     TOT    75.5085a                                             12.7777n             27.1115u             
         rd     0.             0.                    0.              0.                                        
         rs     0.             0.                    0.              0.                                        
         id     75.5085a       1.08517e-24           8.34159k        12.7777n                                  
         fn     0.             0.                    8.34159k        0.                                        
 m14     TOT    41.8806a                                             9.51617n             15.0374u             
         rd     0.             0.                    0.              0.                                        
         rs     0.             0.                    0.              0.                                        
         id     41.8806a       2.0892e-24            4.47730k        9.51617n                                  
         fn     0.             0.                    4.47730k        0.                                        
 m13     TOT    5.72875e-21                                          111.298p             2.05693n             
         rd     0.             0.                    0.              0.                                        
         rs     0.             0.                    0.              0.                                        
         id     5.72875e-21    1.11077e-24           71.8156         111.298p                                  
         fn     0.             0.                    71.8156         0.                                        
 m10     TOT    5.23521e-21                                          106.395p             1.87972n             
         rd     0.             0.                    0.              0.                                        
         rs     0.             0.                    0.              0.                                        
         id     5.23521e-21    1.10674e-24           68.7771         106.395p                                  
         fn     0.             0.                    68.7771         0.                                        
 m8      TOT    1.88546e-33                                          44.0612a             6.76981e-22          
         rd     0.             0.                    0.              0.                                        
         rs     0.             0.                    0.              0.                                        
         id     1.88546e-33    1.68165e-32           334.843m        44.0612a                                  
         fn     0.             0.                    334.843m        0.                                        
 m15     TOT    5.70667e-36                                          2.42403a             2.049e-24            
         rd     0.             0.                    0.              0.                                        
[...]
         rs     0.             0.                    0.              0.                                        
         id     1.18227e-23    1.8759e-23            793.879m        25.0375u                                  
         fn     0.             0.                    793.879m        0.                                        
 m2      TOT    4.03254e-25                                          2.01747m             1.46131              
         rd     0.             0.                    0.              0.                                        
         rs     0.             0.                    0.              0.                                        
         id     4.03254e-25    1.97846e-23           142.766m        2.01747m                                  
         fn     0.             0.                    142.766m        0.                                        
 m9      TOT    2.74086e-25                                          52.9911u             993.233m             
         rd     0.             0.                    0.              0.                                        
         rs     0.             0.                    0.              0.                                        
         id     2.74086e-25    2.12362e-24           359.257m        52.9911u                                  
         fn     0.             0.                    359.257m        0.                                        
 m5      TOT    2.09088e-25                                          1.33146m             757.692m             
         rd     0.             0.                    0.              0.                                        
         rs     0.             0.                    0.              0.                                        
         id     2.09088e-25    8.40937e-24           157.682m        1.33146m                                  
         fn     0.             0.                    157.682m        0.                                        
 rb      TOT    8.74958e-26                                          61.2246u             317.067m             
         rs     8.74958e-26    2.16649e-24           200.963m        61.2246u                                  
         1/f    0.             0.                    200.963m        0.                                        
 m12     TOT    4.76103e-26                                          87.5423u             172.530m             
         rd     0.             0.                    0.              0.                                        
         rs     0.             0.                    0.              0.                                        
         id     4.76103e-26    1.99497e-24           154.484m        87.5423u                                  
         fn     0.             0.                    154.484m        0.                                        
 m13     TOT    4.48041e-26                                          980.473n             162.361m             
         rd     0.             0.                    0.              0.                                        
         rs     0.             0.                    0.              0.                                        
         id     4.48041e-26    1.11077e-24           200.839m        980.473n                                  
         fn     0.             0.                    200.839m        0.                                        
 m11     TOT    4.33053e-26                                          38.4388u             156.930m             
         rd     0.             0.                    0.              0.                                        
         rs     0.             0.                    0.              0.                                        
         id     4.33053e-26    1.08517e-24           199.766m        38.4388u                                  
         fn     0.             0.                    199.766m        0.                                        
 m10     TOT    3.08371e-26                                          1.28651u             111.748m             
         rd     0.             0.                    0.              0.                                        
         rs     0.             0.                    0.              0.                                        
         id     3.08371e-26    1.10674e-24           166.922m        1.28651u                                  
         fn     0.             0.                    166.922m        0.                                        
 m14     TOT    1.92825e-26                                          28.9565u             69.8758m             
         rd     0.             0.                    0.              0.                                        
         rs     0.             0.                    0.              0.                                        
         id     1.92825e-26    2.0892e-24            96.0707m        28.9565u                                  
         fn     0.             0.                    96.0707m        0.                                        
 m1      TOT    1.45447e-26                                          2.01728m             52.7070m             
         rd     0.             0.                    0.              0.                                        
         rs     0.             0.                    0.              0.                                        
         id     1.45447e-26    1.97846e-23           27.1137m        2.01728m                                  
         fn     0.             0.                    27.1137m        0.                                        
 m3      TOT    9.63135e-27                                          25.4509u             34.9021m             
         rd     0.             0.                    0.              0.                                        
         rs     0.             0.                    0.              0.                                        
         id     9.63135e-27    2.07481e-23           21.5454m        25.4509u                                  
         fn     0.             0.                    21.5454m        0.                                        
 m4      TOT    2.68655e-27                                          1.29903m             9.73552m             
         rd     0.             0.                    0.              0.                                        
         rs     0.             0.                    0.              0.                                        
         id     2.68655e-27    8.40937e-24           17.8738m        1.29903m                                  
         fn     0.             0.                    17.8738m        0.                                        
 m15     TOT    8.58902e-28                                          68.9817n             3.11249m             
         rd     0.             0.                    0.              0.                                        
         rs     0.             0.                    0.              0.                                        
         id     8.58902e-28    2.60043e-24           18.1739m        68.9817n                                  
         fn     0.             0.                    18.1739m        0.                                        
 m17     TOT    1.56072e-28                                          30.8268n             565.574u             
         rd     0.             0.                    0.              0.                                        
         rs     0.             0.                    0.              0.                                        
         id     1.56072e-28    1.71437e-24           9.54135m        30.8268n                                  
         fn     0.             0.                    9.54135m        0.                                        
 m18     TOT    1.30252e-28                                          25.3673n             472.008u             
         rd     0.             0.                    0.              0.                                        
         rs     0.             0.                    0.              0.                                        
         id     1.30252e-28    1.73938e-24           8.65356m        25.3673n                                  
         fn     0.             0.                    8.65356m        0.                                        
 m8      TOT    7.52333e-33                                          1.63597n             27.2630n             
         rd     0.             0.                    0.              0.                                        
         rs     0.             0.                    0.              0.                                        
         id     7.52333e-33    1.68165e-32           668.862m        1.63597n                                  
         fn     0.             0.                    668.862m        0.                                        
 m16     TOT    0.                                                   0.                   0.                   
         rd     0.             0.                    0.              0.                                        
         rs     0.             0.                    0.              0.                                        
         id     0.             0.                    154.484m        0.                                        
         fn     0.             0.                    154.484m        0.                                        
 



 **** total output noise voltage         = 2.760e-23       V^2/Hz
                                         =   5.2531p       V/sqrt(Hz)

       transfer function value:
        v(7)/vin1                        = 424.3804u      
      equivalent input noise at vin1                          
                                         =  12.3783n       V/sqrt(Hz)
 


 **** the results of the sqrt of integral (V^2 / freq)
      from fstart upto   10.0000g       Hz. using more freq points 
      results in more accurate total noise values.     

 **** total output noise voltage   =    3.4086m      V 

  **** total equivalent input noise =    1.2181m      V   



 ******
 lab8.sp

 ****** ac analysis tnom=  25.000 temp=  25.000 ******
x

 freq         onoise     inoise    
             mag        mag        
    1.00000    16.6886u    4.1665n 
    1.25893    16.6886u    4.1665n 
    1.58489    16.6886u    4.1665n 
    1.99526    16.6886u    4.1665n 
    2.51189    16.6886u    4.1665n 
    3.16228    16.6886u    4.1665n 
    3.98107    16.6886u    4.1665n 
    5.01187    16.6886u    4.1665n 
    6.30957    16.6886u    4.1665n 
    7.94328    16.6886u    4.1665n 
   10.00000    16.6886u    4.1665n 
   12.58925    16.6886u    4.1665n 
   15.84893    16.6886u    4.1665n 
   19.95262    16.6886u    4.1665n 
   25.11886    16.6886u    4.1665n 
   31.62278    16.6886u    4.1665n 
   39.81072    16.6886u    4.1665n 
   50.11872    16.6886u    4.1665n 
   63.09573    16.6886u    4.1665n 
   79.43282    16.6886u    4.1665n 
  100.00000    16.6885u    4.1665n 
  125.89254    16.6884u    4.1665n 
  158.48932    16.6883u    4.1665n 
  199.52623    16.6882u    4.1665n 
  251.18864    16.6879u    4.1665n 
  316.22777    16.6874u    4.1665n 
  398.10717    16.6867u    4.1665n 
  501.18723    16.6856u    4.1665n 
  630.95734    16.6838u    4.1665n 
  794.32823    16.6810u    4.1665n 
    1.00000k   16.6766u    4.1665n 
    1.25893k   16.6696u    4.1665n 
    1.58489k   16.6585u    4.1665n 
    1.99526k   16.6409u    4.1665n 
    2.51189k   16.6132u    4.1665n 
    3.16228k   16.5695u    4.1665n 
    3.98107k   16.5010u    4.1665n 
    5.01187k   16.3942u    4.1665n 
    6.30957k   16.2290u    4.1665n 
    7.94328k   15.9772u    4.1665n 
   10.00000k   15.6010u    4.1665n 
   12.58925k   15.0556u    4.1665n 
   15.84893k   14.2975u    4.1665n 
   19.95262k   13.3001u    4.1665n 
   25.11886k   12.0741u    4.1665n 
   31.62278k   10.6774u    4.1665n 
   39.81072k    9.2051u    4.1665n 
   50.11872k    7.7605u    4.1665n 
   63.09573k    6.4261u    4.1665n 
   79.43282k    5.2501u    4.1665n 
  100.00000k    4.2486u    4.1666n 
  125.89254k    3.4159u    4.1667n 
  158.48932k    2.7346u    4.1668n 
  199.52623k    2.1830u    4.1669n 
  251.18864k    1.7396u    4.1672n 
  316.22777k    1.3846u    4.1677n 
  398.10717k    1.1013u    4.1684n 
  501.18723k  875.5740n    4.1695n 
  630.95734k  695.9364n    4.1712n 
  794.32823k  553.0920n    4.1740n 
    1.00000x  439.5668n    4.1785n 
    1.25893x  349.3812n    4.1854n 
    1.58489x  277.7647n    4.1964n 
    1.99526x  220.9173n    4.2137n 
    2.51189x  175.8145n    4.2406n 
    3.16228x  140.0483n    4.2824n 
    3.98107x  111.6974n    4.3464n 
    5.01187x   89.2208n    4.4426n 
    6.30957x   71.3721n    4.5830n 
    7.94328x   57.1322n    4.7796n 
   10.00000x   45.6679n    5.0390n 
   12.58925x   36.3161n    5.3532n 
   15.84893x   28.5874n    5.6905n 
   19.95262x   22.1618n    5.9920n 
   25.11886x   16.8566n    6.1857n 
   31.62278x   12.5687n    6.2173n 
   39.81072x    9.2115n    6.0798n 
   50.11872x    6.6747n    5.8181n 
   63.09573x    4.8163n    5.5029n 
   79.43282x    3.4815n    5.1983n 
  100.00000x    2.5271n    4.9432n 
  125.89254x    1.8386n    4.7523n 
  158.48932x    1.3337n    4.6247n 
  199.52623x  958.0796p    4.5544n 
  251.18864x  677.8329p    4.5378n 
  316.22777x  471.4015p    4.5779n 
  398.10717x  323.2081p    4.6870n 
  501.18723x  220.0470p    4.8870n 
  630.95734x  150.1588p    5.2092n 
  794.32823x  103.6515p    5.6915n 
    1.00000g   72.9019p    6.3726n 
    1.25893g   52.4631p    7.2809n 
    1.58489g   38.6542p    8.4177n 
    1.99526g   29.0881p    9.7386n 
    2.51189g   22.2646p   11.1386n 
    3.16228g   17.2572p   12.4537n 
    3.98107g   13.4935p   13.4864n 
    5.01187g   10.6121p   14.0554n 
    6.30957g    8.3774p   14.0490n 
    7.94328g    6.6289p   13.4583n 
   10.00000g    5.2531p   12.3783n 
y
x

 freq         volt db    volt phase 
             7          7           
    1.00000    72.0531    -2.1788m  
    1.25893    72.0531    -2.7429m  
    1.58489    72.0531    -3.4532m  
    1.99526    72.0531    -4.3473m  
    2.51189    72.0531    -5.4729m  
    3.16228    72.0531    -6.8900m  
    3.98107    72.0531    -8.6739m  
    5.01187    72.0531   -10.9198m  
    6.30957    72.0531   -13.7473m  
    7.94328    72.0531   -17.3068m  
   10.00000    72.0531   -21.7879m  
   12.58925    72.0531   -27.4294m  
   15.84893    72.0531   -34.5316m  
   19.95262    72.0531   -43.4727m  
   25.11886    72.0531   -54.7288m  
   31.62278    72.0531   -68.8995m  
   39.81072    72.0531   -86.7393m  
   50.11872    72.0531  -109.1983m  
   63.09573    72.0530  -137.4724m  
   79.43282    72.0530  -173.0673m  
  100.00000    72.0530  -217.8784m  
  125.89254    72.0530  -274.2919m  
  158.48932    72.0529  -345.3115m  
  199.52623    72.0528  -434.7183m  
  251.18864    72.0527  -547.2718m  
  316.22777    72.0524  -688.9622m  
  398.10717    72.0521  -867.3277m  
  501.18723    72.0515    -1.0919   
  630.95734    72.0506    -1.3745   
  794.32823    72.0491    -1.7302   
    1.00000k   72.0468    -2.1777   
    1.25893k   72.0432    -2.7409   
    1.58489k   72.0374    -3.4490   
    1.99526k   72.0282    -4.3390   
    2.51189k   72.0137    -5.4564   
    3.16228k   71.9909    -6.8571   
    3.98107k   71.9549    -8.6088   
    5.01187k   71.8984   -10.7908   
    6.30957k   71.8105   -13.4930   
    7.94328k   71.6746   -16.8090   
   10.00000k   71.4677   -20.8233   
   12.58925k   71.1586   -25.5875   
   15.84893k   70.7099   -31.0868   
   19.95262k   70.0818   -37.2062   
   25.11886k   69.2417   -43.7154   
   31.62278k   68.1739   -50.2974   
   39.81072k   66.8851   -56.6182   
   50.11872k   65.4024   -62.4064   
   63.09573k   63.7635   -67.5007   
   79.43282k   62.0079   -71.8503   
  100.00000k   60.1694   -75.4859   
  125.89254k   58.2744   -78.4844   
  158.48932k   56.3419   -80.9409   
  199.52623k   54.3849   -82.9518   
  251.18864k   52.4120   -84.6061   
  316.22777k   50.4288   -85.9827   
  398.10717k   48.4388   -87.1501   
  501.18723k   46.4442   -88.1680   
  630.95734k   44.4461   -89.0891   
  794.32823k   42.4448   -89.9617   
    1.00000x   40.4402   -90.8311   
    1.25893x   38.4312   -91.7420   
    1.58489x   36.4160   -92.7401   
    1.99526x   34.3914   -93.8729   
    2.51189x   32.3525   -95.1901   
    3.16228x   30.2917   -96.7409   
    3.98107x   28.1982   -98.5689   
    5.01187x   26.0566  -100.6996   
    6.30957x   23.8476  -103.1214   
    7.94328x   21.5497  -105.7593   
   10.00000x   19.1453  -108.4531   
   12.58925x   16.6297  -110.9616   
   15.84893x   14.0206  -113.0180   
   19.95262x   11.3607  -114.4340   
   25.11886x    8.7076  -115.2049   
   31.62278x    6.1137  -115.5440   
   39.81072x    3.6088  -115.8213   
   50.11872x    1.1930  -116.4508   
   63.09573x   -1.1575  -117.7972   
   79.43282x   -3.4819  -120.1382   
  100.00000x   -5.8278  -123.6640   
  125.89254x   -8.2483  -128.4812   
  158.48932x  -10.8005  -134.6003   
  199.52623x  -13.5406  -141.9121   
  251.18864x  -16.5144  -150.1753   
  316.22777x  -19.7455  -159.0526   
  398.10717x  -23.2282  -168.1984   
  501.18723x  -26.9305  -177.3554   
  630.95734x  -30.8044   173.6026   
  794.32823x  -34.7930   164.6859   
    1.00000g  -38.8315   155.8199   
    1.25893g  -42.8466   146.8604   
    1.58489g  -46.7600   137.6192   
    1.99526g  -50.4956   127.9316   
    2.51189g  -53.9843   117.7409   
    3.16228g  -57.1665   107.1318   
    3.98107g  -59.9955    96.2846   
    5.01187g  -62.4409    85.4002   
    6.30957g  -64.4907    74.6662   
    7.94328g  -66.1509    64.2762   
   10.00000g  -67.4449    54.4540   
y

          ***** job concluded
 ******  
 lab8.sp

 ****** job statistics summary tnom=  25.000 temp=  25.000 ******
  
 ******  Machine Information  ******
 CPU:
 model name	: Intel(R) Xeon(R) Silver 4316 CPU @ 2.30GHz
 cpu MHz	: 2600.000
 CPU(s)		: 40
  
 OS:
 Linux version 3.10.0-1160.102.1.el7.x86_64 (mockbuild@kbuilder.bsys.centos.org) (gcc version 4.8.5 20150623 (Red Hat 4.8.5-44) (GCC) ) #1 SMP Tue Oct 17 15:42:21 UTC 2023

 System loadavg : 15.96 15.78 15.78 20/1514 4617


  ******  PrimeSim HSPICE Threads Information  ******

  Command Line Threads Count :     1
  Available CPU Count        :    40
  Actual Threads Count       :     1


  ******  Circuit Statistics  ******
  # nodes       =      17 # elements   =      25
  # resistors   =       1 # capacitors =       2 # inductors   =       0
  # mutual_inds =       0 # vccs       =       0 # vcvs        =       0
  # cccs        =       0 # ccvs       =       0 # volt_srcs   =       4
  # curr_srcs   =       0 # diodes     =       0 # bjts        =       0
  # jfets       =       0 # mosfets    =      18 # U elements  =       0
  # T elements  =       0 # W elements =       0 # B elements  =       0
  # S elements  =       0 # P elements =       0 # va device   =       0
  # vector_srcs =       0 # N elements =       0


  ******  Runtime Statistics (seconds)  ******

  analysis           time    # points   tot. iter  conv.iter
  op point           0.00           1          29
  ac analysis        0.09         101         101
  readin             0.00
  errchk             0.00
  setup              0.00
  output             0.00


           peak memory used        531.68 megabytes
           total cpu time            0.10 seconds
           total elapsed time        0.15 seconds
           job started at     23:17:58 05/26/2026
           job ended   at     23:17:58 05/26/2026

>info:         ***** hspice job concluded
           job total runtime         0.15 seconds


 lic: Release primesim token(s) 
 lic: total license checkout elapse time:        0.05(s)
